Circuit: * D:\OneDrive\Circuit\Simulation\Common emitter.asc

Direct Newton iteration for .op point succeeded.

Date: Sun Nov 04 15:56:22 2018
Total elapsed time: 0.053 seconds.

tnom = 27
temp = 27
method = modified trap
totiter = 2093
traniter = 2084
tranpoints = 1042
accept = 1042
rejected = 0
matrix size = 11
fillins = 0
solver = Normal
Matrix Compiler1:      35 opcodes  0.1/[0.1]/0.1
Matrix Compiler2: off  [0.1]/0.1/0.1

